Circuit: * C:\Users\Sony\Desktop\New folder\LTSpice\Flyback Converter\Phase shift oscillator.asc

WARNING: Less than two connections to node 5V.  This node is used by V1.
WARNING: Less than two connections to node -5V.  This node is used by V2.
Direct Newton iteration failed to find .op point.  (Use ".option noopiter" to skip.)
Starting Gmin stepping
Gmin = 10
Gmin = 1.07374
Gmin = 0.115292
Gmin = 0.0123794
Gmin = 0.00132923
Gmin = 0.000142725
vernier = 0.5
vernier = 0.25
Gmin = 5.75385e-005
vernier = 0.125
vernier = 0.0625
vernier = 0.03125
vernier = 0.015625
vernier = 0.0078125
Gmin = 6.01942e-005
vernier = 0.00390625
vernier = 0.00195313
vernier = 0.000976563
vernier = 0.000488281
Gmin = 6.00622e-005
Gmin = 0
Gmin stepping failed

Starting source stepping with srcstepmethod=0
Could not converge to DC with sources off!
Starting source stepping with srcstepmethod=1
Could not converge to DC with sources off!
Pseudo Transient failed in finding the operating point.
Trouble finding operating point....skipping operating point for Transient analysis.

Date: Tue Nov 02 21:34:18 2021
Total elapsed time: 4.985 seconds.

tnom = 27
temp = 27
method = modified trap
totiter = 3855817
traniter = 0
tranpoints = 1
accept = 1
rejected = 101517
matrix size = 7
fillins = 0
solver = Normal
Matrix Compiler1:      14 opcodes  0.2/[0.1]/0.1
Matrix Compiler2: 379 bytes object code size  0.2/0.6/[0.2]

