Circuit: * D:\MuhammadShamaas\Projects_Github\LTSpice\High Impedance Differential Amplifier.asc

Limiting rise time of source v4 to 1e-005
Limiting fall time of source v4 to 1e-005
u3:vx1: Missing value, assumed 0V @ DC
u2:vx1: Missing value, assumed 0V @ DC
u1:vx1: Missing value, assumed 0V @ DC
Direct Newton iteration for .op point succeeded.

Date: Sun Sep 12 03:18:21 2021
Total elapsed time: 6.293 seconds.

tnom = 27
temp = 27
method = modified trap
totiter = 86196
traniter = 86170
tranpoints = 30921
accept = 25096
rejected = 5825
matrix size = 213
fillins = 196
solver = Normal
Thread vector: 32.4/20.0[3] 19.8/16.7[3] 17.5/13.3[3] 2.9/17.4[1]  2592/500
Matrix Compiler1: 19.90 KB object code size  16.9/14.5/[4.4]
Matrix Compiler2: 20.17 KB object code size  11.8/18.0/[4.1]

