Circuit: * D:\MuhammadShamaas\Projects_Github\Proteus\Automotive Burgular Alarm\Automotive Burgular Alarm.asc

Direct Newton iteration for .op point succeeded.

Date: Sun Aug 29 00:48:26 2021
Total elapsed time: 0.687 seconds.

tnom = 27
temp = 27
method = modified trap
totiter = 4855
traniter = 4837
tranpoints = 1847
accept = 1688
rejected = 159
matrix size = 42
fillins = 4
solver = Normal
Matrix Compiler1: 2.15 KB object code size  2.4/2.2/[0.5]
Matrix Compiler2: 2.93 KB object code size  1.2/3.7/[0.7]

